[General]
sim-time-limit=250s
num-rngs = 1
seed-0-mt = 5
output-scalar-file-append = false
record-eventlog = false
cmdenv-express-mode = false

*.visualizer.*.interfaceTableVisualizer.displayInterfaceTables = true

**.tcp.typename = "Tcp"
**.udp.typename = "Udp"

**.packetCapacity = 500

# tcp general settings
#**.tcp.advertisedWindow = 65535                      # in bytes, corresponds with the maximal receiver buffer capacity (Note: normally, NIC queues should be at least this size)
**.tcp.delayedAcksEnabled = false                    # delayed ACK algorithm (RFC 1122) enabled/disabled
**.tcp.nagleEnabled = true                           # Nagle's algorithm (RFC 896) enabled/disabled
**.tcp.limitedTransmitEnabled = false                # Limited Transmit algorithm (RFC 3042) enabled/disabled (can be used for TCPReno/TCPTahoe/TCPNewReno/TCPNoCongestionControl)
**.tcp.increasedIWEnabled = false                    # Increased Initial Window (RFC 3390) enabled/disabled
**.tcp.sackSupport = false                           # Selective Acknowledgment (RFC 2018, 2883, 3517) support (header option) (SACK will be enabled for a connection if both endpoints support it)
**.tcp.windowScalingSupport = false                  # Window Scale (RFC 1323) support (header option) (WS will be enabled for a connection if both endpoints support it)
**.tcp.timestampSupport = false                      # Timestamps (RFC 1323) support (header option) (TS will be enabled for a connection if both endpoints support it)
**.tcp.mss = 1452                                    # Maximum Segment Size (RFC 793) (header option)
**.tcp.tcpAlgorithmClass = "TcpReno"                 # TCPReno/TCPTahoe/TCPNewReno/TCPNoCongestionControl/DumbTCP

**.tcp.*.*.vector-recording = true
**.tcp.*.rtt.result-recording-modes = +vector
**.tcp.*.*.result-recording-modes = -vector
**.host*.app*.*.vector-recording = true
**.ppp.*xPk*.vector-recording = true
#*.router*.ppp[0].ppp.vector-recording = true
#**.vector-recording = false

[Config baselineTestExampleTopoVisualizer]
description = "Visualize base topology"
network = baselineTest

sim-time-limit=400s

output-vector-file = "${resultdir}/${configname}/${configname}-${runnumber}.vec"
output-scalar-file = "${resultdir}/${configname}/${configname}-${runnumber}.sca"

*.visualizer.*.interfaceTableVisualizer.displayInterfaceTables = false

**.crcMode = "computed"

*.nVID = ${numCli=1,2,10,20,30,40,50,60,70,80} # Number of video clients
*.nLVD = ${numCli} # Number of file download clients
*.nFDO = ${numCli} # Number of file download clients
*.nSSH = ${numCli} # Number of SSH clients
*.nVIP = ${numCli} # Number of VoIP clients

**.numApps = 0

[Config baselineTestTokenQoS_base]
description = "All five applications - base configuration without any resource allocation"
network = baselineTestQoS
sim-time-limit=400s

output-vector-file = "${resultdir}/${configname}/${configname}-${runnumber}.vec"
output-scalar-file = "${resultdir}/${configname}/${configname}-${runnumber}.sca"

**.crcMode = "computed"
*.host*.numApps = 1

*.configurator.config = xmldoc("configs/baseQoS/routerConfigBaseHtbTest.xml")

# File download client
*.hostFDO[*].hasTcp = true
*.hostFDO[*].app[0].typename = "TcpFileDownloadApp"
*.hostFDO[*].app[0].localAddress = ""
*.hostFDO[*].app[0].localPort = -1 # port number to listen on
*.hostFDO[*].app[0].connectAddress = "serverFDO" # server address (may be symbolic)
*.hostFDO[*].app[0].connectPort = 1042 # port number to connect to
*.hostFDO[*].app[0].startTime = uniform(0.01s,1s) # time first session begins
*.hostFDO[*].app[0].stopTime = -1s # time of finishing sending, negative values mean forever
*.hostFDO[*].app[0].numRequestsPerSession = 1 # number of requests sent per session
*.hostFDO[*].app[0].requestLength = 800B # length of a request
*.hostFDO[*].app[0].replyLength = 2500KiB # length of a reply
*.hostFDO[*].app[0].thinkTime = 0.01s # time gap between requests
*.hostFDO[*].app[0].idleInterval = 1s # time gap between sessions
*.hostFDO[*].app[0].reconnectInterval = 1s # if connection breaks, waits this much before trying to reconnect
*.hostFDO[*].app[0].stopOperationExtraTime = -1s # extra time after lifecycle stop operation finished
*.hostFDO[*].app[0].stopOperationTimeout = 2s # timeout value for lifecycle stop operation

# File download server
*.serverFDO.hasTcp = true
*.serverFDO.numApps = 1
*.serverFDO.app[0].typename = "TcpGenericServerApp"
*.serverFDO.app[0].localAddress = "" # local address; may be left empty ("")
*.serverFDO.app[0].localPort = 1042 # localPort number to listen on
*.serverFDO.app[0].replyDelay = 0s #
*.serverFDO.app[0].stopOperationExtraTime = -1s # extra time after lifecycle stop operation finished
*.serverFDO.app[0].stopOperationTimeout  = 2s # timeout value for lifecycle stop operation

# Video client
**.hostVID[*].hasTcp = true
**.hostVID[*].app[0].typename = "TCPVideoStreamCliAppV2"
**.hostVID[*].app[0].localAddress = "" # may be left empty ("")
**.hostVID[*].app[0].localPort = -1 # port number to listen on
**.hostVID[*].app[0].connectAddress = "serverVID" # server address (may be symbolic)
**.hostVID[*].app[0].connectPort = 1042 # port number to connect to
**.hostVID[*].app[0].dataTransferMode = "object"
**.hostVID[*].app[0].startTime = uniform(0.01s,1s) # time first session begins
**.hostVID[*].app[0].stopTime = -1s # time of finish sending, 0 means infinity
**.hostVID[*].app[0].idleInterval = 1s
**.hostVID[*].app[0].requestLength = 200B # length of a request
**.hostVID[*].app[0].reconnectInterval = 1s # if connection breaks, waits this much before trying to reconnect
**.hostVID[*].app[0].numRequestsPerSession = 1 # number of requests sent per session
**.hostVID[*].app[0].thinkTime = 1000s # time gap between requests
**.hostVID[*].app[0].video_resolution = "360 480 720 1080" # how many kbits are required for 1 second of video for each representation (quality levels)
**.hostVID[*].app[0].manifest_size = 100000
**.hostVID[*].app[0].video_buffer_max_length = 40s # buffer max length in seconds
**.hostVID[*].app[0].video_duration = int(uniform(240s,320s)) # video length in seconds
**.hostVID[*].app[0].segment_length = 5s # video segment length in seconds
**.hostVID[*].app[0].useFlexibleBitrate = "flexible"

# Video server
*.serverVID.hasTcp = true
*.serverVID.numApps = 1
*.serverVID.app[0].typename = "TcpGenericServerApp"
*.serverVID.app[0].localAddress = "" # local address; may be left empty ("")
*.serverVID.app[0].localPort = 1042 # localPort number to listen on
*.serverVID.app[0].replyDelay = 0s #
*.serverVID.app[0].stopOperationExtraTime = -1s # extra time after lifecycle stop operation finished
*.serverVID.app[0].stopOperationTimeout  = 2s # timeout value for lifecycle stop operation

# Live Video client
**.hostLVD[*].hasTcp = true
**.hostLVD[*].app[0].typename = "TCPLiveVideoStreamCliApp"
**.hostLVD[*].app[0].localAddress = "" # may be left empty ("")
**.hostLVD[*].app[0].localPort = -1 # port number to listen on
**.hostLVD[*].app[0].connectAddress = "serverLVD" # server address (may be symbolic)
**.hostLVD[*].app[0].connectPort = 1043 # port number to connect to
**.hostLVD[*].app[0].dataTransferMode = "object"
**.hostLVD[*].app[0].startTime = uniform(0.01s,1s) # time first session begins
**.hostLVD[*].app[0].stopTime = -1s # time of finish sending, 0 means infinity
**.hostLVD[*].app[0].idleInterval = 1s
**.hostLVD[*].app[0].requestLength = 200B # length of a request
**.hostLVD[*].app[0].reconnectInterval = 1s # if connection breaks, waits this much before trying to reconnect
**.hostLVD[*].app[0].numRequestsPerSession = 1 # number of requests sent per session
**.hostLVD[*].app[0].thinkTime = 1s # time gap between requests
**.hostLVD[*].app[0].video_resolution = "240 360 480 720 1080" # how many kbits are required for 1 second of video for each representation (quality levels)
**.hostLVD[*].app[0].manifest_size = 100000
**.hostLVD[*].app[0].video_buffer_max_length = 6s # buffer max length in seconds
**.hostLVD[*].app[0].video_duration = int(uniform(40s,70s)) # video length in seconds
**.hostLVD[*].app[0].segment_length = 1s # video segment length in seconds
**.hostLVD[*].app[0].useFlexibleBitrate = "flexible"
**.hostLVD[*].app[0].video_type = "live"
**.hostLVD[*].app[0].delay_threshold = 4
**.hostLVD[*].app[0].speedup_rate = 1.05

# Live Video server
*.serverLVD.hasTcp = true
*.serverLVD.numApps = 1
*.serverLVD.app[0].typename = "TcpGenericServerApp"
*.serverLVD.app[0].localAddress = "" # local address; may be left empty ("")
*.serverLVD.app[0].localPort = 1043 # localPort number to listen on
*.serverLVD.app[0].replyDelay = 0s #
*.serverLVD.app[0].stopOperationExtraTime = -1s # extra time after lifecycle stop operation finished
*.serverLVD.app[0].stopOperationTimeout  = 2s # timeout value for lifecycle stop operation

# Remote Shell Client
**.hostSSH[*].hasTcp = true
**.hostSSH[*].app[0].typename = "TcpSimpleSshAppV2"
**.hostSSH[*].app[0].localAddress = "" # local address or empty ("")
**.hostSSH[*].app[0].localPort = -1 # local port number
**.hostSSH[*].app[0].connectAddress = "serverSSH" # server address (may be symbolic)
**.hostSSH[*].app[0].connectPort = 22  # port number to connect to
**.hostSSH[*].app[0].startTime = uniform(0.01s,1s) # time first session begins
**.hostSSH[*].app[0].stopTime = -1s # time of finishing sending, negative values mean forever
**.hostSSH[*].app[0].numCommands = 1 # user types this many commands in a session
**.hostSSH[*].app[0].commandLength = 10B # commands are this many characters (plus Enter)
**.hostSSH[*].app[0].keyPressDelay = 0.05s # delay between keypresses
**.hostSSH[*].app[0].commandOutputLength = 500B # commands produce this much output
**.hostSSH[*].app[0].thinkTime = 1s # user waits this much before starting to type new command
**.hostSSH[*].app[0].idleInterval = 1s # time gap between sessions
**.hostSSH[*].app[0].reconnectInterval = 1s # if connection breaks, user waits this much before trying to reconnect
**.hostSSH[*].app[0].stopOperationExtraTime = -1s # extra time after lifecycle stop operation finished
**.hostSSH[*].app[0].stopOperationTimeout = 2s # timeout value for lifecycle stop operation

# SSH server
*.serverSSH.hasTcp = true
*.serverSSH.numApps = 1
*.serverSSH.app[*].typename = "TcpGenericServerApp"
*.serverSSH.app[*].localAddress = "" # local address; may be left empty ("")
*.serverSSH.app[*].localPort = 22 # localPort number to listen on
*.serverSSH.app[*].replyDelay = 0s #
*.serverSSH.app[*].stopOperationExtraTime = -1s # extra time after lifecycle stop operation finished
*.serverSSH.app[*].stopOperationTimeout  = 2s # timeout value for lifecycle stop operation

# VoIP receiver
**.hostVIP[*].hasUdp = true
**.hostVIP[*].app[0].typename = "SimpleVoipReceiver"
**.hostVIP[*].app[0].localPort = 2000
**.hostVIP[*].app[0].emodelIe = 5 # Equipment impairment factor
**.hostVIP[*].app[0].emodelBpl = 10 # Packet-loss robustness factor
**.hostVIP[*].app[0].emodelA = 5 # Advantage factor
**.hostVIP[*].app[0].emodelRo = 93.2 # Basic signal-to-noise ratio
**.hostVIP[*].app[0].playoutDelay = 10ms # initial delay for beginning playout after receiving the first packet
**.hostVIP[*].app[0].adaptivePlayoutDelay = false # if true, adjust playoutDelay after each talkspurt
**.hostVIP[*].app[0].bufferSpace = 20 # buffer size in packets
**.hostVIP[*].app[0].mosSpareTime = 1s # spare time before calculating MOS (after calculated playout time of last packet)

# VoIP sender
**.serverVIP.hasUdp = true
**.serverVIP.numApps = nVIP
**.serverVIP.app[*].typename = "SimpleVoipSender"
**.serverVIP.app[*].localPort = -1
**.serverVIP.app[*].destPort = 2000
**.serverVIP.app[*].destAddress = "hostVIP[" + string(index()) + "]"
**.serverVIP.app[*].talkPacketSize = 40B # size of talk packets in bytes
**.serverVIP.app[*].talkspurtDuration = weibull(1.423s, 0.824s)
**.serverVIP.app[*].silenceDuration = weibull(0.899s, 1.089s)
**.serverVIP.app[*].packetizationInterval = 1ms # interval between sending voice packets
**.serverVIP.app[*].startTime = uniform(0.01s,1s) # time of start sending
**.serverVIP.app[*].stopTime = -1s # time of end of sending, -1 means forever


[Config initialTestHTB_105mbps]
description = "Baseline test. All five applications, same number of each. No slicing"
extends = baselineTestTokenQoS_base
#*.nVID = ${numEachApp=10,20,30,40,50} # Number of video clients
*.nVID = ${numEachApp=1} # Number of video clients
#*.nVID = ${numEachApp=20,30,40,50} # Number of video clients
#*.nVID = ${numEachApp=10} # Number of video clients
*.nLVD = ${numEachApp} # Number of live video client
*.nFDO = ${numEachApp} # Number of file download clients
*.nSSH = ${numEachApp} # Number of SSH clients
*.nVIP = ${numEachApp} # Number of VoIP clients

*.router*.ppp[0].ppp.queue.typename = "HTBQueue"
*.router*.ppp[0].ppp.queue.numQueues = 5
*.router*.ppp[0].ppp.queue.htbHysterisis = false
*.router*.ppp[0].ppp.queue.htbTreeConfig = xmldoc("configs/htbTree/htbConfig1.xml")
*.router*.ppp[0].ppp.queue.maxHTBtreeDepth = 3
*.router*.ppp[0].ppp.queue.maxHTBnumPrios = 3
*.router*.ppp[0].ppp.queue.classifier.defaultGateIndex = 0 
*.router*.ppp[0].ppp.queue.classifier.packetFilters = "*;*;*;*;*"
*.router0.ppp[0].ppp.queue.classifier.packetDataFilters = "sourceAddress(10.1.0.*);sourceAddress(10.2.0.*);sourceAddress(10.3.0.*);sourceAddress(10.4.0.*);sourceAddress(10.5.0.*)"
*.router1.ppp[0].ppp.queue.classifier.packetDataFilters = "destinationAddress(10.1.0.0);destinationAddress(10.2.0.0);destinationAddress(10.3.0.0);destinationAddress(10.4.0.0);destinationAddress(10.5.0.0)"

**.connFIX0.datarate = 105Mbps

[Config initialTestHTB_105mbps_bla]
description = "Baseline test. All five applications, same number of each. No slicing"
extends = baselineTestTokenQoS_base
#*.nVID = ${numEachApp=10,20,30,40,50} # Number of video clients
*.nVID = ${numEachApp=1} # Number of video clients
#*.nVID = ${numEachApp=20,30,40,50} # Number of video clients
#*.nVID = ${numEachApp=10} # Number of video clients
*.nLVD = ${numEachApp} # Number of live video client
*.nFDO = ${numEachApp} # Number of file download clients
*.nSSH = ${numEachApp} # Number of SSH clients
*.nVIP = ${numEachApp} # Number of VoIP clients

*.router*.ppp[0].ppp.queue.typename = "HTBQueue"
*.router*.ppp[0].ppp.queue.numQueues = 5
*.router*.ppp[0].ppp.queue.htbHysterisis = false
*.router*.ppp[0].ppp.queue.htbTreeConfig = xmldoc("configs/htbTree/htbConfig1.xml")
*.router*.ppp[0].ppp.queue.maxHTBtreeDepth = 3
*.router*.ppp[0].ppp.queue.maxHTBnumPrios = 3
*.router*.ppp[0].ppp.queue.classifier.defaultGateIndex = 0 
*.router*.ppp[0].ppp.queue.classifier.packetFilters = "*;*;*;*;*"
*.router0.ppp[0].ppp.queue.classifier.packetDataFilters = "sourceAddress(10.1.0.*);sourceAddress(10.2.0.*);sourceAddress(10.3.0.*);sourceAddress(10.4.0.*);sourceAddress(10.5.0.*)"
*.router1.ppp[0].ppp.queue.classifier.packetDataFilters = "destinationAddress(10.1.0.0);destinationAddress(10.2.0.0);destinationAddress(10.3.0.0);destinationAddress(10.4.0.0);destinationAddress(10.5.0.0)"

**.connFIX0.datarate = 105Mbps

[Config htbTest2d]
description = "All five applications - base configuration without any resource allocation"
network = htbTest1
sim-time-limit=100s

output-vector-file = "${resultdir}/${configname}/${configname}-${runnumber}.vec"
output-scalar-file = "${resultdir}/${configname}/${configname}-${runnumber}.sca"

**.crcMode = "computed"
*.host*.numApps = 1

*.configurator.config = xmldoc("configs/baseQoS/routerConfigBaseHtbTest1.xml")

# File download client
*.hostFDO[*].hasTcp = true
*.hostFDO[*].app[0].typename = "TcpFileDownloadApp"
*.hostFDO[*].app[0].localAddress = ""
*.hostFDO[*].app[0].localPort = -1 # port number to listen on
*.hostFDO[*].app[0].connectAddress = "serverFDO" # server address (may be symbolic)
*.hostFDO[*].app[0].connectPort = 1042 + parentIndex() # port number to connect to
*.hostFDO[*].app[0].numRequestsPerSession = 1 # number of requests sent per session
*.hostFDO[*].app[0].requestLength = 800B # length of a request
*.hostFDO[*].app[0].replyLength = 5MiB # length of a reply
*.hostFDO[*].app[0].thinkTime = 0.01s # time gap between requests
*.hostFDO[*].app[0].idleInterval = 1s # time gap between sessions
*.hostFDO[*].app[0].reconnectInterval = 1s # if connection breaks, waits this much before trying to reconnect
*.hostFDO[*].app[0].stopOperationExtraTime = -1s # extra time after lifecycle stop operation finished
*.hostFDO[*].app[0].stopOperationTimeout = 2s # timeout value for lifecycle stop operation

#*.hostFDO[0].app[0].startTime = 1s # time first session begins
#*.hostFDO[0].app[0].stopTime = -1s # time of finishing sending, negative values mean forever

*.hostFDO[*].app[0].startTime = replaceUnit(parentIndex()+1, "s") # time first session begins
*.hostFDO[*].app[0].stopTime = replaceUnit(parentIndex()+3, "s") # time of finishing sending, negative values mean forever

# File download server
*.serverFDO.hasTcp = true
*.serverFDO.numApps = 15
*.serverFDO.app[*].typename = "TcpGenericServerApp"
*.serverFDO.app[*].localAddress = "" # local address; may be left empty ("")
*.serverFDO.app[*].localPort = 1042 + index() # localPort number to listen on
*.serverFDO.app[*].replyDelay = 0s #
*.serverFDO.app[*].stopOperationExtraTime = -1s # extra time after lifecycle stop operation finished
*.serverFDO.app[*].stopOperationTimeout  = 2s # timeout value for lifecycle stop operation

#*.nVID = ${numEachApp=10,20,30,40,50} # Number of video clients
#*.nVID = ${numEachApp=1} # Number of video clients
#*.nVID = ${numEachApp=20,30,40,50} # Number of video clients
#*.nVID = ${numEachApp=10} # Number of video clients
#*.nLVD = ${numEachApp} # Number of live video client
*.nFDO = ${15} # Number of file download clients
#*.nSSH = ${numEachApp} # Number of SSH clients
#*.nVIP = ${numEachApp} # Number of VoIP clients

*.router*.ppp[0].ppp.queue.typename = "HTBQueue"
*.router*.ppp[0].ppp.queue.numQueues = 2
*.router*.ppp[0].ppp.queue.htbHysterisis = false
*.router*.ppp[0].ppp.queue.htbTreeConfig = xmldoc("configs/htbTree/htbTest1Config.xml")
*.router*.ppp[0].ppp.queue.classifier.defaultGateIndex = 1
*.router*.ppp[0].ppp.queue.classifier.packetFilters = "*;*"
*.router0.ppp[0].ppp.queue.classifier.packetDataFilters = "sourceAddress(10.3.0.0);*"
*.router1.ppp[0].ppp.queue.classifier.packetDataFilters = "destinationAddress(10.3.0.0);*"

**.connFIX0.datarate = 10Mbps



[Config noHtbTest2c]
description = "All five applications - base configuration without any resource allocation"
network = htbTest1
sim-time-limit=100s

output-vector-file = "${resultdir}/${configname}/${configname}-${runnumber}.vec"
output-scalar-file = "${resultdir}/${configname}/${configname}-${runnumber}.sca"

**.crcMode = "computed"
*.host*.numApps = 1

*.configurator.config = xmldoc("configs/baseQoS/routerConfigBaseHtbTest1.xml")

# File download client
*.hostFDO[*].hasTcp = true
*.hostFDO[*].app[0].typename = "TcpFileDownloadApp"
*.hostFDO[*].app[0].localAddress = ""
*.hostFDO[*].app[0].localPort = -1 # port number to listen on
*.hostFDO[*].app[0].connectAddress = "serverFDO" # server address (may be symbolic)
*.hostFDO[*].app[0].connectPort = 1042 + parentIndex() # port number to connect to
*.hostFDO[*].app[0].numRequestsPerSession = 1 # number of requests sent per session
*.hostFDO[*].app[0].requestLength = 800B # length of a request
*.hostFDO[*].app[0].replyLength = 5MiB # length of a reply
*.hostFDO[*].app[0].thinkTime = 0.01s # time gap between requests
*.hostFDO[*].app[0].idleInterval = 1s # time gap between sessions
*.hostFDO[*].app[0].reconnectInterval = 1s # if connection breaks, waits this much before trying to reconnect
*.hostFDO[*].app[0].stopOperationExtraTime = -1s # extra time after lifecycle stop operation finished
*.hostFDO[*].app[0].stopOperationTimeout = 2s # timeout value for lifecycle stop operation

#*.hostFDO[0].app[0].startTime = 1s # time first session begins
#*.hostFDO[0].app[0].stopTime = -1s # time of finishing sending, negative values mean forever

*.hostFDO[*].app[0].startTime = replaceUnit(parentIndex()+1, "s") # time first session begins
*.hostFDO[*].app[0].stopTime = replaceUnit(parentIndex()+3, "s") # time of finishing sending, negative values mean forever

# File download server
*.serverFDO.hasTcp = true
*.serverFDO.numApps = 15
*.serverFDO.app[*].typename = "TcpGenericServerApp"
*.serverFDO.app[*].localAddress = "" # local address; may be left empty ("")
*.serverFDO.app[*].localPort = 1042 + index() # localPort number to listen on
*.serverFDO.app[*].replyDelay = 0s #
*.serverFDO.app[*].stopOperationExtraTime = -1s # extra time after lifecycle stop operation finished
*.serverFDO.app[*].stopOperationTimeout  = 2s # timeout value for lifecycle stop operation

#*.nVID = ${numEachApp=10,20,30,40,50} # Number of video clients
#*.nVID = ${numEachApp=1} # Number of video clients
#*.nVID = ${numEachApp=20,30,40,50} # Number of video clients
#*.nVID = ${numEachApp=10} # Number of video clients
#*.nLVD = ${numEachApp} # Number of live video client
*.nFDO = ${15} # Number of file download clients
#*.nSSH = ${numEachApp} # Number of SSH clients
#*.nVIP = ${numEachApp} # Number of VoIP clients

#*.router*.ppp[0].ppp.queue.typename = "HTBQueue"
#*.router*.ppp[0].ppp.queue.numQueues = 2
#*.router*.ppp[0].ppp.queue.htbHysterisis = false
#*.router*.ppp[0].ppp.queue.htbTreeConfig = xmldoc("configs/htbTree/htbTest1Config.xml")
#*.router*.ppp[0].ppp.queue.classifier.defaultGateIndex = 1
#*.router*.ppp[0].ppp.queue.classifier.packetFilters = "*;*"
#*.router0.ppp[0].ppp.queue.classifier.packetDataFilters = "sourceAddress(10.3.0.0);*"
#*.router1.ppp[0].ppp.queue.classifier.packetDataFilters = "destinationAddress(10.3.0.0);*"

**.connFIX0.datarate = 10Mbps

[Config htbTest3]
description = "All five applications - base configuration without any resource allocation"
network = htbTest1
sim-time-limit=200s

output-vector-file = "${resultdir}/${configname}/${configname}-${runnumber}.vec"
output-scalar-file = "${resultdir}/${configname}/${configname}-${runnumber}.sca"

**.crcMode = "computed"
*.host*.numApps = 1

*.configurator.config = xmldoc("configs/baseQoS/routerConfigBaseHtbTest1.xml")

# File download client
*.hostFDO[*].hasTcp = true
*.hostFDO[*].app[0].typename = "TcpFileDownloadApp"
*.hostFDO[*].app[0].localAddress = ""
*.hostFDO[*].app[0].localPort = -1 # port number to listen on
*.hostFDO[*].app[0].connectAddress = "serverFDO" # server address (may be symbolic)
*.hostFDO[*].app[0].connectPort = 1042 + parentIndex() # port number to connect to
*.hostFDO[*].app[0].numRequestsPerSession = 1 # number of requests sent per session
*.hostFDO[*].app[0].requestLength = 800B # length of a request
*.hostFDO[*].app[0].replyLength = 5MiB # length of a reply
*.hostFDO[*].app[0].thinkTime = 0.01s # time gap between requests
*.hostFDO[*].app[0].idleInterval = 1s # time gap between sessions
*.hostFDO[*].app[0].reconnectInterval = 1s # if connection breaks, waits this much before trying to reconnect
*.hostFDO[*].app[0].stopOperationExtraTime = -1s # extra time after lifecycle stop operation finished
*.hostFDO[*].app[0].stopOperationTimeout = 2s # timeout value for lifecycle stop operation

#*.hostFDO[0].app[0].startTime = 1s # time first session begins
#*.hostFDO[0].app[0].stopTime = -1s # time of finishing sending, negative values mean forever

*.hostFDO[*].app[0].startTime = replaceUnit(3*parentIndex()+1, "s") # time first session begins
*.hostFDO[*].app[0].stopTime = replaceUnit(3*parentIndex()+3, "s") # time of finishing sending, negative values mean forever

# File download server
*.serverFDO.hasTcp = true
*.serverFDO.numApps = 15
*.serverFDO.app[*].typename = "TcpGenericServerApp"
*.serverFDO.app[*].localAddress = "" # local address; may be left empty ("")
*.serverFDO.app[*].localPort = 1042 + index() # localPort number to listen on
*.serverFDO.app[*].replyDelay = 0s #
*.serverFDO.app[*].stopOperationExtraTime = -1s # extra time after lifecycle stop operation finished
*.serverFDO.app[*].stopOperationTimeout  = 2s # timeout value for lifecycle stop operation

#*.nVID = ${numEachApp=10,20,30,40,50} # Number of video clients
#*.nVID = ${numEachApp=1} # Number of video clients
#*.nVID = ${numEachApp=20,30,40,50} # Number of video clients
#*.nVID = ${numEachApp=10} # Number of video clients
#*.nLVD = ${numEachApp} # Number of live video client
*.nFDO = ${15} # Number of file download clients
#*.nSSH = ${numEachApp} # Number of SSH clients
#*.nVIP = ${numEachApp} # Number of VoIP clients

*.router*.ppp[0].ppp.queue.typename = "HTBQueue"
*.router*.ppp[0].ppp.queue.numQueues = 2
*.router*.ppp[0].ppp.queue.htbHysterisis = false
*.router*.ppp[0].ppp.queue.htbTreeConfig = xmldoc("configs/htbTree/htbTest1Config.xml")
*.router*.ppp[0].ppp.queue.classifier.defaultGateIndex = 1
*.router*.ppp[0].ppp.queue.classifier.packetFilters = "*;*"
*.router0.ppp[0].ppp.queue.classifier.packetDataFilters = "sourceAddress(10.3.0.0);*"
*.router1.ppp[0].ppp.queue.classifier.packetDataFilters = "destinationAddress(10.3.0.0);*"

**.connFIX0.datarate = 10Mbps


[Config noHtbTest3]
description = "All five applications - base configuration without any resource allocation"
network = htbTest1
sim-time-limit=200s

output-vector-file = "${resultdir}/${configname}/${configname}-${runnumber}.vec"
output-scalar-file = "${resultdir}/${configname}/${configname}-${runnumber}.sca"

**.crcMode = "computed"
*.host*.numApps = 1

*.configurator.config = xmldoc("configs/baseQoS/routerConfigBaseHtbTest1.xml")

# File download client
*.hostFDO[*].hasTcp = true
*.hostFDO[*].app[0].typename = "TcpFileDownloadApp"
*.hostFDO[*].app[0].localAddress = ""
*.hostFDO[*].app[0].localPort = -1 # port number to listen on
*.hostFDO[*].app[0].connectAddress = "serverFDO" # server address (may be symbolic)
*.hostFDO[*].app[0].connectPort = 1042 + parentIndex() # port number to connect to
*.hostFDO[*].app[0].numRequestsPerSession = 1 # number of requests sent per session
*.hostFDO[*].app[0].requestLength = 800B # length of a request
*.hostFDO[*].app[0].replyLength = 5MiB # length of a reply
*.hostFDO[*].app[0].thinkTime = 0.01s # time gap between requests
*.hostFDO[*].app[0].idleInterval = 1s # time gap between sessions
*.hostFDO[*].app[0].reconnectInterval = 1s # if connection breaks, waits this much before trying to reconnect
*.hostFDO[*].app[0].stopOperationExtraTime = -1s # extra time after lifecycle stop operation finished
*.hostFDO[*].app[0].stopOperationTimeout = 2s # timeout value for lifecycle stop operation

#*.hostFDO[0].app[0].startTime = 1s # time first session begins
#*.hostFDO[0].app[0].stopTime = -1s # time of finishing sending, negative values mean forever

*.hostFDO[*].app[0].startTime = replaceUnit(3*parentIndex()+1, "s") # time first session begins
*.hostFDO[*].app[0].stopTime = replaceUnit(3*parentIndex()+3, "s") # time of finishing sending, negative values mean forever

# File download server
*.serverFDO.hasTcp = true
*.serverFDO.numApps = 15
*.serverFDO.app[*].typename = "TcpGenericServerApp"
*.serverFDO.app[*].localAddress = "" # local address; may be left empty ("")
*.serverFDO.app[*].localPort = 1042 + index() # localPort number to listen on
*.serverFDO.app[*].replyDelay = 0s #
*.serverFDO.app[*].stopOperationExtraTime = -1s # extra time after lifecycle stop operation finished
*.serverFDO.app[*].stopOperationTimeout  = 2s # timeout value for lifecycle stop operation

#*.nVID = ${numEachApp=10,20,30,40,50} # Number of video clients
#*.nVID = ${numEachApp=1} # Number of video clients
#*.nVID = ${numEachApp=20,30,40,50} # Number of video clients
#*.nVID = ${numEachApp=10} # Number of video clients
#*.nLVD = ${numEachApp} # Number of live video client
*.nFDO = ${15} # Number of file download clients
#*.nSSH = ${numEachApp} # Number of SSH clients
#*.nVIP = ${numEachApp} # Number of VoIP clients

#*.router*.ppp[0].ppp.queue.typename = "HTBQueue"
#*.router*.ppp[0].ppp.queue.numQueues = 2
#*.router*.ppp[0].ppp.queue.htbHysterisis = false
#*.router*.ppp[0].ppp.queue.htbTreeConfig = xmldoc("configs/htbTree/htbTest1Config.xml")
#*.router*.ppp[0].ppp.queue.classifier.defaultGateIndex = 1
#*.router*.ppp[0].ppp.queue.classifier.packetFilters = "*;*"
#*.router0.ppp[0].ppp.queue.classifier.packetDataFilters = "sourceAddress(10.3.0.0);*"
#*.router1.ppp[0].ppp.queue.classifier.packetDataFilters = "destinationAddress(10.3.0.0);*"

**.connFIX0.datarate = 10Mbps


[Config htbTest4]
description = "All five applications - base configuration without any resource allocation"
network = htbTest1
sim-time-limit=200s

output-vector-file = "${resultdir}/${configname}/${configname}-${runnumber}.vec"
output-scalar-file = "${resultdir}/${configname}/${configname}-${runnumber}.sca"

**.crcMode = "computed"
*.host*.numApps = 1

*.configurator.config = xmldoc("configs/baseQoS/routerConfigBaseHtbTest1.xml")

# File download client
*.hostFDO[*].hasTcp = true
*.hostFDO[*].app[0].typename = "TcpFileDownloadApp"
*.hostFDO[*].app[0].localAddress = ""
*.hostFDO[*].app[0].localPort = -1 # port number to listen on
*.hostFDO[*].app[0].connectAddress = "serverFDO" # server address (may be symbolic)
*.hostFDO[*].app[0].connectPort = 1042 + parentIndex() # port number to connect to
*.hostFDO[*].app[0].numRequestsPerSession = 1 # number of requests sent per session
*.hostFDO[*].app[0].requestLength = 800B # length of a request
*.hostFDO[*].app[0].replyLength = 50MiB # length of a reply
*.hostFDO[*].app[0].thinkTime = 0.01s # time gap between requests
*.hostFDO[*].app[0].idleInterval = 1s # time gap between sessions
*.hostFDO[*].app[0].reconnectInterval = 1s # if connection breaks, waits this much before trying to reconnect
*.hostFDO[*].app[0].stopOperationExtraTime = -1s # extra time after lifecycle stop operation finished
*.hostFDO[*].app[0].stopOperationTimeout = 2s # timeout value for lifecycle stop operation

#*.hostFDO[0].app[0].startTime = 1s # time first session begins
#*.hostFDO[0].app[0].stopTime = -1s # time of finishing sending, negative values mean forever
